32

Ar	-0.017827597598476092	-0.018116005132717466	-0.024710792544392166
Ar	2.625428970279426	2.7087154983202346	0.021333143952684472
Ar	2.618621472456756	0.04261474093526956	2.605097118219101
Ar	-0.030728493068085415	2.7015105353447937	2.691420518507332
Ar	0.05094396539882412	-0.0025715568261786555	5.3454126783171425
Ar	2.685143197073454	2.630893903545233	5.304991454270515
Ar	2.7302365986065564	0.04935840316257207	8.031244817425044
Ar	-0.026046415609827168	2.6266463373976694	7.948053550221019
Ar	-0.02555034320763228	5.340946700006215	-0.024350871638774096
Ar	2.6845898408905455	7.92515999134067	0.024085483133261233
Ar	2.6741613984898622	5.280892750185625	2.6892912246727243
Ar	0.036276382380809165	7.9346237438156315	2.6739622120599895
Ar	0.03754710881793323	5.326626561245641	5.348339562594789
Ar	2.6662875554541055	7.999651152320185	5.300683371200638
Ar	2.646424996748956	5.271566160746512	7.950080268519625
Ar	0.06667230976324268	8.00533429311294	7.962661611148202
Ar	5.35038908074589	0.04779172398876355	0.05209980936374081
Ar	8.011327932322422	2.6463935951305393	0.02405934016390509
Ar	8.0291895586882	-0.04345994247862277	2.706323547233007
Ar	5.358859751912855	2.6677925142505168	2.6849251677227244
Ar	5.303292783225889	-0.01955315213005938	5.274540195636478
Ar	7.964626696499298	2.680448660787338	5.303850561460273
Ar	7.92013900434347	-0.01825888550194745	7.9301793148986945
Ar	5.358889165972752	2.7002976666565335	7.952917124093606
Ar	5.356307771956227	5.275812949364108	0.024219765290214128
Ar	7.950859837482739	7.988172226781971	-0.02488985714444015
Ar	7.9678451310727585	5.367427261151698	2.6905394915811907
Ar	5.303288423487151	7.968610208211413	2.647009347952021
Ar	5.303706964700075	5.344002759013783	5.304147825091109
Ar	8.000038565336009	7.956497191615528	5.348022546703367
Ar	8.003933223715993	5.341690941494571	7.9462691515163195
Ar	5.273997627670336	7.934030798893008	7.984664613656329
