32

Ar	-0.030325892886350313	-0.0023577048783377597	0.012627924682486654
Ar	2.622642946732311	2.6958231313179817	0.04299961465568073
Ar	2.645347773138193	-0.029618521767138153	2.610175054491863
Ar	-0.019613346027408746	2.643975163461694	2.688795426440439
Ar	-0.02635297375444129	-0.036103845866364045	5.304608181164877
Ar	2.6376721795526756	2.6031621185723717	5.270190555188958
Ar	2.62603163322187	0.05680749982795356	8.019639317870118
Ar	-0.01525890724913384	2.6949160741150147	7.936087435792703
Ar	-0.008648509249741464	5.321965984916079	0.019397129911162648
Ar	2.631638052355896	7.941739182518419	-0.05039408723124366
Ar	2.6380393638145976	5.349211596233871	2.6779183396844104
Ar	0.01645766354261708	7.978517824690207	2.656831930542252
Ar	0.02399245384449082	5.35133955824767	5.295445483031046
Ar	2.6971728458430166	8.02670713431606	5.372129541972787
Ar	2.6786563325162467	5.268961383227025	7.947001340146382
Ar	-0.01622358684258226	7.939458398086839	7.972430132932669
Ar	5.352106962410187	-0.00614871829154245	-0.03136876015039193
Ar	8.008227904804146	2.673181179172429	0.03895592838728679
Ar	7.977434944993865	-0.04696374753990229	2.6852592113441207
Ar	5.339944045895503	2.6176744841896182	2.626910555778514
Ar	5.34770287297612	0.028603441088351084	5.3763241868361415
Ar	7.979772413884403	2.7030741566635057	5.283776943245117
Ar	8.009894366370176	0.03333615639732098	7.95415665985811
Ar	5.341528730346208	2.6796155681583635	8.009945546213944
Ar	5.331458106662108	5.321462291750122	0.04232715590858534
Ar	7.9977914189454	7.961246838291471	-0.00577478307393806
Ar	7.982903679757549	5.359896504112581	2.6531268221299698
Ar	5.288463996370893	7.998808224018877	2.633211061081264
Ar	5.270678927067824	5.286316082420447	5.27544374052384
Ar	7.9222333272485645	7.923223122888965	5.350688375104926
Ar	7.9590328505419485	5.28670160578136	7.987720800928205
Ar	5.340104490065376	7.944443151009749	8.008852145835405
