216

Si	0	0	0
Si	2.5	2.5	0
Si	2.5	0	2.5
Si	0	2.5	2.5
Si	1.25	1.25	1.25
Si	3.75	3.75	1.25
Si	1.25	3.75	3.75
Si	3.75	1.25	3.75
Si	0	0	5
Si	2.5	2.5	5
Si	2.5	0	7.5
Si	0	2.5	7.5
Si	1.25	1.25	6.25
Si	3.75	3.75	6.25
Si	1.25	3.75	8.75
Si	3.75	1.25	8.75
Si	0	0	10
Si	2.5	2.5	10
Si	2.5	0	12.5
Si	0	2.5	12.5
Si	1.25	1.25	11.25
Si	3.75	3.75	11.25
Si	1.25	3.75	13.75
Si	3.75	1.25	13.75
Si	0	5	0
Si	2.5	7.5	0
Si	2.5	5	2.5
Si	0	7.5	2.5
Si	1.25	6.25	1.25
Si	3.75	8.75	1.25
Si	1.25	8.75	3.75
Si	3.75	6.25	3.75
Si	0	5	5
Si	2.5	7.5	5
Si	2.5	5	7.5
Si	0	7.5	7.5
Si	1.25	6.25	6.25
Si	3.75	8.75	6.25
Si	1.25	8.75	8.75
Si	3.75	6.25	8.75
Si	0	5	10
Si	2.5	7.5	10
Si	2.5	5	12.5
Si	0	7.5	12.5
Si	1.25	6.25	11.25
Si	3.75	8.75	11.25
Si	1.25	8.75	13.75
Si	3.75	6.25	13.75
Si	0	10	0
Si	2.5	12.5	0
Si	2.5	10	2.5
Si	0	12.5	2.5
Si	1.25	11.25	1.25
Si	3.75	13.75	1.25
Si	1.25	13.75	3.75
Si	3.75	11.25	3.75
Si	0	10	5
Si	2.5	12.5	5
Si	2.5	10	7.5
Si	0	12.5	7.5
Si	1.25	11.25	6.25
Si	3.75	13.75	6.25
Si	1.25	13.75	8.75
Si	3.75	11.25	8.75
Si	0	10	10
Si	2.5	12.5	10
Si	2.5	10	12.5
Si	0	12.5	12.5
Si	1.25	11.25	11.25
Si	3.75	13.75	11.25
Si	1.25	13.75	13.75
Si	3.75	11.25	13.75
Si	5	0	0
Si	7.5	2.5	0
Si	7.5	0	2.5
Si	5	2.5	2.5
Si	6.25	1.25	1.25
Si	8.75	3.75	1.25
Si	6.25	3.75	3.75
Si	8.75	1.25	3.75
Si	5	0	5
Si	7.5	2.5	5
Si	7.5	0	7.5
Si	5	2.5	7.5
Si	6.25	1.25	6.25
Si	8.75	3.75	6.25
Si	6.25	3.75	8.75
Si	8.75	1.25	8.75
Si	5	0	10
Si	7.5	2.5	10
Si	7.5	0	12.5
Si	5	2.5	12.5
Si	6.25	1.25	11.25
Si	8.75	3.75	11.25
Si	6.25	3.75	13.75
Si	8.75	1.25	13.75
Si	5	5	0
Si	7.5	7.5	0
Si	7.5	5	2.5
Si	5	7.5	2.5
Si	6.25	6.25	1.25
Si	8.75	8.75	1.25
Si	6.25	8.75	3.75
Si	8.75	6.25	3.75
Si	5	5	5
Si	7.5	7.5	5
Si	7.5	5	7.5
Si	5	7.5	7.5
Si	6.25	6.25	6.25
Si	8.75	8.75	6.25
Si	6.25	8.75	8.75
Si	8.75	6.25	8.75
Si	5	5	10
Si	7.5	7.5	10
Si	7.5	5	12.5
Si	5	7.5	12.5
Si	6.25	6.25	11.25
Si	8.75	8.75	11.25
Si	6.25	8.75	13.75
Si	8.75	6.25	13.75
Si	5	10	0
Si	7.5	12.5	0
Si	7.5	10	2.5
Si	5	12.5	2.5
Si	6.25	11.25	1.25
Si	8.75	13.75	1.25
Si	6.25	13.75	3.75
Si	8.75	11.25	3.75
Si	5	10	5
Si	7.5	12.5	5
Si	7.5	10	7.5
Si	5	12.5	7.5
Si	6.25	11.25	6.25
Si	8.75	13.75	6.25
Si	6.25	13.75	8.75
Si	8.75	11.25	8.75
Si	5	10	10
Si	7.5	12.5	10
Si	7.5	10	12.5
Si	5	12.5	12.5
Si	6.25	11.25	11.25
Si	8.75	13.75	11.25
Si	6.25	13.75	13.75
Si	8.75	11.25	13.75
Si	10	0	0
Si	12.5	2.5	0
Si	12.5	0	2.5
Si	10	2.5	2.5
Si	11.25	1.25	1.25
Si	13.75	3.75	1.25
Si	11.25	3.75	3.75
Si	13.75	1.25	3.75
Si	10	0	5
Si	12.5	2.5	5
Si	12.5	0	7.5
Si	10	2.5	7.5
Si	11.25	1.25	6.25
Si	13.75	3.75	6.25
Si	11.25	3.75	8.75
Si	13.75	1.25	8.75
Si	10	0	10
Si	12.5	2.5	10
Si	12.5	0	12.5
Si	10	2.5	12.5
Si	11.25	1.25	11.25
Si	13.75	3.75	11.25
Si	11.25	3.75	13.75
Si	13.75	1.25	13.75
Si	10	5	0
Si	12.5	7.5	0
Si	12.5	5	2.5
Si	10	7.5	2.5
Si	11.25	6.25	1.25
Si	13.75	8.75	1.25
Si	11.25	8.75	3.75
Si	13.75	6.25	3.75
Si	10	5	5
Si	12.5	7.5	5
Si	12.5	5	7.5
Si	10	7.5	7.5
Si	11.25	6.25	6.25
Si	13.75	8.75	6.25
Si	11.25	8.75	8.75
Si	13.75	6.25	8.75
Si	10	5	10
Si	12.5	7.5	10
Si	12.5	5	12.5
Si	10	7.5	12.5
Si	11.25	6.25	11.25
Si	13.75	8.75	11.25
Si	11.25	8.75	13.75
Si	13.75	6.25	13.75
Si	10	10	0
Si	12.5	12.5	0
Si	12.5	10	2.5
Si	10	12.5	2.5
Si	11.25	11.25	1.25
Si	13.75	13.75	1.25
Si	11.25	13.75	3.75
Si	13.75	11.25	3.75
Si	10	10	5
Si	12.5	12.5	5
Si	12.5	10	7.5
Si	10	12.5	7.5
Si	11.25	11.25	6.25
Si	13.75	13.75	6.25
Si	11.25	13.75	8.75
Si	13.75	11.25	8.75
Si	10	10	10
Si	12.5	12.5	10
Si	12.5	10	12.5
Si	10	12.5	12.5
Si	11.25	11.25	11.25
Si	13.75	13.75	11.25
Si	11.25	13.75	13.75
Si	13.75	11.25	13.75
