64

Mg	0.0	0.0	0.0
Mg	2.13	2.13	0.0
Mg	2.13	0.0	2.13
Mg	0.0	2.13	2.13
Mg	0.0	0.0	4.26
Mg	2.13	2.13	4.26
Mg	2.13	0.0	6.39
Mg	0.0	2.13	6.39
Mg	0.0	4.26	0.0
Mg	2.13	6.39	0.0
Mg	2.13	4.26	2.13
Mg	0.0	6.39	2.13
Mg	0.0	4.26	4.26
Mg	2.13	6.39	4.26
Mg	2.13	4.26	6.39
Mg	0.0	6.39	6.39
Mg	4.26	0.0	0.0
Mg	6.39	2.13	0.0
Mg	6.39	0.0	2.13
Mg	4.26	2.13	2.13
Mg	4.26	0.0	4.26
Mg	6.39	2.13	4.26
Mg	6.39	0.0	6.39
Mg	4.26	2.13	6.39
Mg	4.26	4.26	0.0
Mg	6.39	6.39	0.0
Mg	6.39	4.26	2.13
Mg	4.26	6.39	2.13
Mg	4.26	4.26	4.26
Mg	6.39	6.39	4.26
Mg	6.39	4.26	6.39
Mg	4.26	6.39	6.39
O	2.13	0.0	0.0
O	4.26	2.13	0.0
O	4.26	0.0	2.13
O	2.13	2.13	2.13
O	2.13	0.0	4.26
O	4.26	2.13	4.26
O	4.26	0.0	6.39
O	2.13	2.13	6.39
O	2.13	4.26	0.0
O	4.26	6.39	0.0
O	4.26	4.26	2.13
O	2.13	6.39	2.13
O	2.13	4.26	4.26
O	4.26	6.39	4.26
O	4.26	4.26	6.39
O	2.13	6.39	6.39
O	6.39	0.0	0.0
O	8.52	2.13	0.0
O	8.52	0.0	2.13
O	6.39	2.13	2.13
O	6.39	0.0	4.26
O	8.52	2.13	4.26
O	8.52	0.0	6.39
O	6.39	2.13	6.39
O	6.39	4.26	0.0
O	8.52	6.39	0.0
O	8.52	4.26	2.13
O	6.39	6.39	2.13
O	6.39	4.26	4.26
O	8.52	6.39	4.26
O	8.52	4.26	6.39
O	6.39	6.39	6.39
