64

Mg	0.006046302027945236	0.0016110820001552406	0.005896679378068945
Mg	2.130951857469438	2.133834125621765	0.0015804744356318846
Mg	2.1367261666945963	0.0012359253848642738	2.1334224037535976
Mg	0.009607678188568992	2.135130841456089	2.131283899827952
Mg	0.006561855441592022	0.004028114181102988	4.268505439905137
Mg	2.1344441463303	2.131278562980721	4.2602824857323185
Mg	2.133797705857154	0.0048078864762693165	6.395083818663458
Mg	0.00846583924533798	2.1353752311307894	6.395782306379235
Mg	0.009422761067868187	4.263548951430487	0.0010625602862850236
Mg	2.1365979634595815	6.398848580127669	0.0059088702372174905
Mg	2.1364958263160645	4.267469570818638	2.1306294653111983
Mg	0.00993945909654507	6.391136993920926	2.1386541270203456
Mg	0.0021915276608890535	4.26365329256083	4.263090466520249
Mg	2.1320249513072254	6.3940531012823385	4.260260376294156
Mg	2.1334060352340343	4.260190202784305	6.398245849382244
Mg	0.005153632166195837	6.396015176901095	6.396270020665195
Mg	4.260094772601223	0.0060081073508503205	0.003359764985140833
Mg	6.392335699989675	2.1390293034781527	0.006888597123257997
Mg	6.397948766326436	0.0011705943508558182	2.130348588057024
Mg	4.260380941482356	2.1370105486045667	2.1304518623774245
Mg	4.2605303821469676	0.009104327537380576	4.269794685713522
Mg	6.393595684846011	2.1357601482858515	4.26548554387129
Mg	6.392139214690237	0.0005958858868334194	6.39904296998342
Mg	4.261617480844695	2.131787614276219	6.390402594533158
Mg	4.262200784956725	4.261012326147758	0.008974515923491964
Mg	6.396956110112352	6.39084703431429	0.006665583618137134
Mg	6.39312241938164	4.265973721498392	2.1388166860117894
Mg	4.260921863384956	6.3916912239851795	2.138029753698029
Mg	4.263380084220881	4.2620734603965476	4.260275722776797
Mg	6.3994806049965725	6.396398683696969	4.262069154336853
Mg	6.394709009623428	4.262917255464057	6.396775717357203
Mg	4.265341815381408	6.397491371517498	6.392830446057894
O	2.13098479108635	0.005985909701893536	0.00012057284145469028
O	4.262819025709188	2.130516147475733	0.0014032460002040281
O	4.2687364001284	0.0025583309750708237	2.1300282577915257
O	2.1373375214833863	2.1388920609824202	2.1335875241259923
O	2.1344901235986753	0.007709304709336594	4.267466940910575
O	4.267162049507813	2.131069600493006	4.2690554210268905
O	4.265436413114804	0.009622182152931437	6.398145063932844
O	2.1338941574410932	2.1306250238994275	6.390818504310575
O	2.137788204722105	4.26718277992703	0.002121286699590954
O	4.262191059051248	6.394222358750009	0.004201488257928734
O	4.262007510829686	4.268941573937671	2.1302403007119133
O	2.1379856824972077	6.3984372769081554	2.130258728320867
O	2.1301513342037133	4.264487915008678	4.265833512123796
O	4.2648198470937535	6.3938566837749065	4.263175805145983
O	4.2683225892156464	4.267514083992434	6.391615970154885
O	2.1329744544635836	6.398486088786728	6.397544141575819
O	6.392803199754732	0.008462380187713323	0.005102327539546715
O	8.523449716542533	2.1323228235145026	0.008535961877649365
O	8.52525868967206	0.006557443783895456	2.13812039466268
O	6.39494470646856	2.1310057339998383	2.132232689375785
O	6.398540469032886	0.002192780623767854	4.264347206523636
O	8.524845676560277	2.1366448856853246	4.264931483458992
O	8.525037913995474	0.009658519464438796	6.391750547245614
O	6.3912731756024295	2.1321590910180004	6.390831853396755
O	6.3924298542461635	4.267510289920786	0.00038444573661941984
O	8.525916273787148	6.394365084201726	0.0023604687422304695
O	8.527764848085342	4.264927341390794	2.1356284850132816
O	6.396224881510155	6.39130902740326	2.1336511787374324
O	6.395745632053936	4.261653665028909	4.260403815205493
O	8.526530928333752	6.399447996601775	4.263468376803402
O	8.521573771074623	4.263932870263942	6.398129591741795
O	6.39186521332743	6.392575162711769	6.394707734593747
