64

Mg	0.5299054184957225	-0.5167698604636187	-0.0016508864440144821
Mg	1.083850991011053	1.644022253942279	-0.030366377896288918
Mg	3.144486060080989	-0.6135251949184469	0.9878669473826099
Mg	1.3152343792493215	1.53771156268019	2.091137270727336
Mg	0.18859807575434367	-0.9287791301595147	3.488105424175163
Mg	6.749694340624469	0.015830167913666437	4.305129128318664
Mg	2.662181647741476	-0.5140848429536076	5.518780185809065
Mg	2.0614120762964214	8.442863509761095	5.995922152508839
Mg	-2.249177674233057	4.990671182137951	-1.133640879668509
Mg	0.2995630085642773	6.041531034959828	1.2155690975771585
Mg	2.156017943058276	4.301086303631203	2.1526234491559695
Mg	0.8145370096980679	7.38762513282025	1.6864084611838426
Mg	1.2879840073438966	4.887693493837412	7.271751380266093
Mg	2.216200019047597	5.6287693075624485	3.904234518288174
Mg	2.089924711663611	5.073765888763359	5.710503915050627
Mg	-0.27292818165923965	4.9301908416446665	5.101656691603891
Mg	4.885540135580707	-0.7906443887482806	0.5526432710672837
Mg	4.526145946527083	0.12616047972538158	-0.7041614331334514
Mg	16.780302846831642	-10.538874622395003	6.795737768289333
Mg	6.989819488505048	2.9806716154830863	1.4091535634297214
Mg	4.339539484564132	-0.6068818814614348	4.667236040265514
Mg	11.80440720502645	12.140631514113837	-9.543174981465368
Mg	0.7241002149388786	35.411096280718525	30.557227046285536
Mg	4.138720847425468	2.021663365229192	5.855126241686004
Mg	4.363993205551709	3.9316477471431437	0.8164799503310033
Mg	5.224947221641175	6.040356066209173	-0.05932471570750275
Mg	7.858762582435781	6.214885414872026	1.5019569354519817
Mg	4.778153849290492	6.130943994432596	2.0431705116777583
Mg	4.031346855886358	3.5642843200501737	4.507015934339587
Mg	6.092022514126848	5.447547706833326	3.7309386759420664
Mg	5.976030987578339	3.24376246138952	5.731568976532633
Mg	4.773681715404937	5.8983164002615665	5.767826821018074
O	3.4790106207429212	0.36761690474415004	-0.8132998268316732
O	5.048335526726286	-0.4180845688635075	3.7386058817635903
O	3.9730189692423163	0.2168680805910162	2.3225526247450845
O	6.256577540152936	-4.846780517816399	8.883729273451012
O	1.7950282391934258	0.11611232866720889	3.747068323154328
O	4.952926004377705	3.0058928517282557	5.0253243574657755
O	4.034036462285804	-0.02911868145415229	7.746695211220164
O	1.8453705225740982	2.629631515555194	7.359350590431533
O	2.3286773550346718	5.7394014563019455	-0.7289714622267564
O	4.062663654203938	6.580076661242729	-0.23072096351382568
O	-73.4524113313043	-14.643189380546142	-166.56282549605288
O	2.4789667763859327	6.749861401176375	2.383476327267354
O	2.226654199159111	4.045226657600291	4.784590304646371
O	3.3594336998639354	4.500166788361378	3.238724066915795
O	3.544573821760416	4.719149381986491	6.80854885301505
O	3.9110299760764153	4.672972426136974	6.174597400005524
O	7.037075847576532	-0.23016644511498002	-2.780328912062176
O	10.154631542405738	-0.04578009391604376	-0.29275628464879855
O	8.425518355314056	0.20982743565741646	2.362258671222253
O	7.575161160741669	2.5570590737893677	2.888211194587796
O	2.27370383362903	4.359466470474811	-6.205474551446473
O	9.447196418950208	6.274630627707841	3.0432081620197
O	8.914159566802889	-2.208544693630319	8.588021004691285
O	9.236445682752464	4.898555461425774	6.152812619186365
O	6.507158474568252	3.6315946634137903	-1.7472759561644053
O	200.6125247595986	54.995593211709306	-17.884116832408
O	16.742603893852053	15.885344233971857	4.040656569331709
O	6.5537400515625155	6.643771549562205	2.262548060796138
O	6.755631587174282	4.381912173668721	4.235149310128748
O	6.201065946365849	8.525267750052612	3.3398847417712156
O	7.9183296093086355	5.0134338279089405	6.954690358660902
O	6.625123890664684	6.756594681090189	7.3629019736364985
